98766
  -OEChem-07262403153D

 29 28  0     1  0  0  0  0  0999 V2000
    1.5236   -0.6689    0.5981 O   0  0  0  0  0  0  0  0  0  0  0  0
   -1.6148   -0.4370   -2.7996 O   0  0  0  0  0  0  0  0  0  0  0  0
    0.8482    1.5150    0.3759 O   0  0  0  0  0  0  0  0  0  0  0  0
   -3.9729    0.5064    0.1124 O   0  0  0  0  0  0  0  0  0  0  0  0
   -3.0154   -1.5136   -0.2807 O   0  0  0  0  0  0  0  0  0  0  0  0
   -0.5467   -0.2552   -0.1739 N   0  0  0  0  0  0  0  0  0  0  0  0
    2.7917   -0.2240    1.0811 C   0  0  0  0  0  0  0  0  0  0  0  0
    2.5676    0.5986    2.3492 C   0  0  0  0  0  0  0  0  0  0  0  0
    3.6288   -1.4643    1.3863 C   0  0  0  0  0  0  0  0  0  0  0  0
    3.4574    0.6196   -0.0051 C   0  0  0  0  0  0  0  0  0  0  0  0
   -1.6978    0.5095   -0.5955 C   0  0  1  0  0  0  0  0  0  0  0  0
    0.6267    0.3127    0.2752 C   0  0  0  0  0  0  0  0  0  0  0  0
   -1.6662    0.7946   -2.0898 C   0  0  0  0  0  0  0  0  0  0  0  0
   -2.9300   -0.2932   -0.2334 C   0  0  0  0  0  0  0  0  0  0  0  0
   -2.7511   -2.1377   -0.6124 H   0  0  0  0  0  0  0  0  0  0  0  0
   -4.2774   -1.3529   -1.0517 H   0  0  0  0  0  0  0  0  0  0  0  0
   -2.8054   -0.9066   -1.8714 H   0  0  0  0  0  0  0  0  0  0  0  0
   -3.6969    0.2984    2.2085 H   0  0  0  0  0  0  0  0  0  0  0  0
   -3.6634   -1.4132    1.8205 H   0  0  0  0  0  0  0  0  0  0  0  0
   -4.9465   -0.3852    1.1454 H   0  0  0  0  0  0  0  0  0  0  0  0
   -2.8378    1.4693   -1.3277 H   0  0  0  0  0  0  0  0  0  0  0  0
   -4.3339    1.4516   -0.4309 H   0  0  0  0  0  0  0  0  0  0  0  0
   -2.8484    2.0338    0.3399 H   0  0  0  0  0  0  0  0  0  0  0  0
    1.6200   -0.1953   -1.5352 H   0  0  0  0  0  0  0  0  0  0  0  0
    0.6312   -0.2758    1.2388 H   0  0  0  0  0  0  0  0  0  0  0  0
    1.5258    2.2233   -0.8964 H   0  0  0  0  0  0  0  0  0  0  0  0
    3.2209    1.6765   -0.9797 H   0  0  0  0  0  0  0  0  0  0  0  0
    2.7581    2.8667    0.8988 H   0  0  0  0  0  0  0  0  0  0  0  0
    4.3920   -1.8594   -0.4230 H   0  0  0  0  0  0  0  0  0  0  0  0
  1  7  1  0  0  0  0
  1 12  1  0  0  0  0
  2 13  1  0  0  0  0
  2 28  1  0  0  0  0
  3 12  2  0  0  0  0
  4 14  1  0  0  0  0
  4 29  1  0  0  0  0
  5 14  2  0  0  0  0
  6 11  1  0  0  0  0
  6 12  1  0  0  0  0
  6 25  1  0  0  0  0
  7  8  1  0  0  0  0
  7  9  1  0  0  0  0
  7 10  1  0  0  0  0
  8 15  1  0  0  0  0
  8 16  1  0  0  0  0
  8 17  1  0  0  0  0
  9 18  1  0  0  0  0
  9 19  1  0  0  0  0
  9 20  1  0  0  0  0
 10 21  1  0  0  0  0
 10 22  1  0  0  0  0
 10 23  1  0  0  0  0
 11 13  1  0  0  0  0
 11 14  1  0  0  0  0
 11 24  1  0  0  0  0
 13 26  1  0  0  0  0
 13 27  1  0  0  0  0
M  END
